Examples/InverterModels/PVSystem2/InvControl2/MonitoredVoltage/Mon_voltage_MAX_Mix_sec10_VLN_Node.Txt

LINE-GROUND and LINE-LINE VOLTAGES BY BUS & NODE

Bus  Node    VLN (kV)   Angle      pu     Base kV    Node-Node   VLL (kV)  Angle      pu

A .. 1       8.1366 /_    9.4    1.0212    13.800        1-2     14.097 /_   39.4    1.0215
   - 2        8.145 /_ -110.5    1.0223    13.800        2-3     14.098 /_  -80.5    1.0216
   - 3       8.1382 /_  129.5    1.0214    13.800        3-1     14.102 /_  159.4    1.0219
B .. 1       8.1524 /_   12.4    1.0232    13.800        1-2     14.088 /_   42.2    1.0209
   - 2       8.0905 /_ -107.9    1.0155    13.800        2-3     13.963 /_  -77.8    1.0118
   - 3       8.0586 /_  132.4    1.0114    13.800        3-1      14.04 /_  162.6    1.0174
C .. 1      0.28446 /_   12.5    1.0265     0.480        1-2    0.49158 /_   42.3    1.0241
   - 2      0.28232 /_ -107.8    1.0187     0.480        2-3    0.48724 /_  -77.7    1.0151
   - 3      0.28121 /_  132.6    1.0147     0.480        3-1    0.48994 /_  162.7    1.0207
